[TITLE]          
;;Project Title/Notes         
[OPTIONS]          
;;Option Value         
FLOW_UNITS CMS         
INFILTRATION HORTON         
FLOW_ROUTING KINWAVE         
LINK_OFFSETS DEPTH         
MIN_SLOPE 0         
ALLOW_PONDING NO         
SKIP_STEADY_STATE NO         
START_DATE 06/13/2016         
START_TIME 00:00:00         
REPORT_START_DATE 06/13/2016         
REPORT_START_TIME 00:00:00         
END_DATE 06/13/2016         
END_TIME 04:00:00         
SWEEP_START 01/01         
SWEEP_END 12/31         
DRY_DAYS 0         
REPORT_STEP 00:01:00         
WET_STEP 00:05:00         
DRY_STEP 01:00:00         
ROUTING_STEP 0:00:30         
INERTIAL_DAMPING PARTIAL         
NORMAL_FLOW_LIMITED BOTH         
FORCE_MAIN_EQUATION H-W         
VARIABLE_STEP 0.75         
LENGTHENING_STEP 0         
MIN_SURFAREA 1.14         
MAX_TRIALS 8         
HEAD_TOLERANCE 0.0015         
SYS_FLOW_TOL 5         
LAT_FLOW_TOL 5         
MINIMUM_STEP 0.5         
THREADS 1         
[EVAPORATION]          
;;Data Source Parameters        
;;-------------- ----------------         
CONSTANT 0.0         
DRY_ONLY NO         
[JUNCTIONS]          
;;Name Elevation MaxDepth InitDepth SurDepth Aponded     
;;-------------- ---------- ---------- ---------- ---------- ----------     
1 200.5 4 0 0 0     
3 201.1 4 0 0 0     
2 201.5 4 0 0 0     
60 201.9 4 0 0 0     
59 202.3 4 0 0 0     
57 202.7 4 0 0 0     
56 203.1 4 0 0 0     
53 203.7 4 0 0 0     
65 201.7 4 0 0 0     
63 202.1 4 0 0 0     
61 202.5 4 0 0 0     
4 202.9 4 0 0 0     
64 202.5 4 0 0 0     
62 202.9 4 0 0 0     
58 202.9 4 0 0 0     
55 203.3 4 0 0 0     
54 203.7 4 0 0 0     
5 202.5 4 0.2 0 0     
6 202.9 4 0 0 0     
7 202.9 4 0 0 0     
9 203.3 4 0 0 0     
8 203.3 4 0 0 0     
51 201.1 4 0 0 0     
21 201.5 4 0 0 0     
25 201.9 4 0 0 0     
27 202.3 4 0 0 0     
30 202.9 4 0 0 0     
28 203.3 4 0 0 0     
11 201.5 4 0 0 0     
47 201.9 4 0 0 0     
10 202.3 4 0 0 0     
14 202.7 4 0 0 0     
15 203.3 4 0 0 0     
50 202.1 4 0 0 0     
48 202.5 4 0 0 0     
49 202.5 4 0 0 0     
46 202.5 4 0 0 0     
12 202.9 4 0 0 0     
52 202.9 4 0 0 0     
13 202.9 4 0 0 0     
16 203.3 4 0 0 0     
18 203.7 4 0 0 0     
17 203.7 4 0 0 0     
44 202.1 4 0 0 0     
42 202.5 4 0 0 0     
40 202.9 4 0 0 0     
38 203.3 4 0 0 0     
37 203.7 4 0 0 0     
19 203.7 4 0 0 0     
45 204.1 4 0 0 0     
20 204.1 4 0 0 0     
39 203.3 4 0 0 0     
41 202.9 4 0 0 0     
43 202.5 4 0 0 0     
26 202.5 4 0 0 0     
23 202.9 4 0 0 0     
34 203.3 4 0 0 0     
36 203.7 4 0 0 0     
35 203.7 4 0 0 0     
22 203.3 4 0 0 0     
24 202.9 4 0 0 0     
29 203.3 4 0 0 0     
33 202.9 4 0 0 0     
31 203.3 4 0 0 0     
32 203.3 4 0 0 0     
[OUTFALLS]          
;;Name Elevation Type Stage Data Gated Route To   
;;-------------- ---------- ---------- ---------------- -------- ----------------     
PFK1 200 FREE NO       
[CONDUITS]          
;;Name From Node To Node Length Roughness InOffset OutOffset InitFlow MaxFlow
;;-------------- ---------------- ---------------- ---------- ---------- ---------- ---------- ---------- ----------  
GQ132 53 56 400 0.01 0 0.2 0 0  
GQ133 56 57 400 0.01 0 0 0 0  
GQ134 57 59 400 0.01 0 0 0 0  
GQ135 59 60 400 0.01 0 0 0 0  
GQ136 60 2 400 0.01 0 0 0 0  
GQ137 2 3 400 0.01 0 0 0 0  
GQ138 3 1 400 0.01 0 0.2 0 0  
GQ139 1 PFK1 400 0.01 0 0.1 0 0  
GQ140 4 61 400 0.01 0 0 0 0  
GQ141 61 63 400 0.01 0 0 0 0  
GQ142 63 2 400 0.01 0 0.2 0 0  
GQ143 62 61 400 0.01 0 0 0 0  
GQ144 64 63 400 0.01 0 0 0 0  
GQ145 9 7 400 0.01 0 0 0 0  
GQ146 8 7 400 0.01 0 0 0 0  
GQ147 7 5 400 0.01 0 0 0 0  
GQ148 6 5 400 0.01 0 0 0 0  
GQ149 5 60 400 0.01 0 0.2 0 0  
GQ150 58 59 400 0.01 0 0.2 0 0  
GQ151 55 57 400 0.01 0 0.2 0 0  
GQ152 54 56 400 0.01 0 0.2 0 0  
GQ153 65 3 400 0.01 0 0.2 0 0  
GQ154 28 30 400 0.01 0 0 0 0  
GQ155 29 30 400 0.01 0 0 0 0  
GQ156 30 27 400 0.01 0 0.2 0 0  
GQ157 27 25 400 0.01 0 0 0 0  
GQ158 25 21 400 0.01 0 0 0 0  
GQ159 21 51 400 0.01 0 0 0 0  
GQ160 51 1 400 0.01 0 0.2 0 0  
GQ161 31 33 400 0.01 0 0 0 0  
GQ162 33 27 400 0.01 0 0.2 0 0  
GQ163 32 33 400 0.01 0 0 0 0  
GQ164 37 38 400 0.01 0 0 0 0  
GQ165 38 40 400 0.01 0 0 0 0  
GQ166 40 42 400 0.01 0 0 0 0  
GQ167 42 44 400 0.01 0 0 0 0  
GQ168 44 21 400 0.01 0 0.2 0 0  
GQ169 43 44 400 0.01 0 0 0 0  
GQ170 41 42 400 0.01 0 0 0 0  
GQ171 39 40 400 0.01 0 0 0 0  
GQ172 45 19 400 0.01 0 0 0 0  
GQ173 19 38 400 0.01 0 0 0 0  
GQ174 20 19 400 0.01 0 0 0 0  
GQ175 15 14 400 0.01 0 0.2 0 0  
GQ176 14 10 400 0.01 0 0 0 0  
GQ177 10 47 400 0.01 0 0 0 0  
GQ178 47 11 400 0.01 0 0 0 0  
GQ179 11 51 400 0.01 0 0 0 0  
GQ180 18 16 400 0.01 0 0 0 0  
GQ181 16 14 400 0.01 0 0.2 0 0  
GQ182 17 16 400 0.01 0 0 0 0  
GQ183 13 10 400 0.01 0 0.2 0 0  
GQ184 12 46 400 0.01 0 0 0 0  
GQ185 46 47 400 0.01 0 0.2 0 0  
GQ186 52 46 400 0.01 0 0 0 0  
GQ187 48 50 400 0.01 0 0 0 0  
GQ188 50 11 400 0.01 0 0.2 0 0  
GQ189 49 50 400 0.01 0 0 0 0  
GQ190 36 34 400 0.01 0 0 0 0  
GQ191 34 23 400 0.01 0 0 0 0  
GQ192 23 26 400 0.01 0 0 0 0  
GQ193 26 25 400 0.01 0 0.2 0 0  
GQ194 35 34 400 0.01 0 0 0 0  
GQ195 22 23 400 0.01 0 0 0 0  
GQ196 24 26 400 0.01 0 0 0 0  
[XSECTIONS]          
;;Link Shape Geom1 Geom2 Geom3 Geom4 Barrels Culvert   
;;-------------- ------------ ---------------- ---------- ---------- ---------- ---------- ----------   
GQ132 CIRCULAR 0.4 0 0 0 1    
GQ133 CIRCULAR 0.6 0 0 0 1    
GQ134 CIRCULAR 0.6 0 0 0 1    
GQ135 CIRCULAR 0.6 0 0 0 1    
GQ136 CIRCULAR 0.6 0 0 0 1    
GQ137 CIRCULAR 0.6 0 0 0 1    
GQ138 CIRCULAR 0.6 0 0 0 1    
GQ139 CIRCULAR 0.8 0 0 0 1    
GQ140 CIRCULAR 0.4 0 0 0 1    
GQ141 CIRCULAR 0.4 0 0 0 1    
GQ142 CIRCULAR 0.4 0 0 0 1    
GQ143 CIRCULAR 0.4 0 0 0 1    
GQ144 CIRCULAR 0.4 0 0 0 1    
GQ145 CIRCULAR 0.4 0 0 0 1    
GQ146 CIRCULAR 0.4 0 0 0 1    
GQ147 CIRCULAR 0.4 0 0 0 1    
GQ148 CIRCULAR 0.4 0 0 0 1    
GQ149 CIRCULAR 0.4 0 0 0 1    
GQ150 CIRCULAR 0.4 0 0 0 1    
GQ151 CIRCULAR 0.4 0 0 0 1    
GQ152 CIRCULAR 0.4 0 0 0 1    
GQ153 CIRCULAR 0.4 0 0 0 1    
GQ154 CIRCULAR 0.4 0 0 0 1    
GQ155 CIRCULAR 0.4 0 0 0 1    
GQ156 CIRCULAR 0.4 0 0 0 1    
GQ157 CIRCULAR 0.6 0 0 0 1    
GQ158 CIRCULAR 0.6 0 0 0 1    
GQ159 CIRCULAR 0.6 0 0 0 1    
GQ160 CIRCULAR 0.6 0 0 0 1    
GQ161 CIRCULAR 0.4 0 0 0 1    
GQ162 CIRCULAR 0.4 0 0 0 1    
GQ163 CIRCULAR 0.4 0 0 0 1    
GQ164 CIRCULAR 0.4 0 0 0 1    
GQ165 CIRCULAR 0.4 0 0 0 1    
GQ166 CIRCULAR 0.4 0 0 0 1    
GQ167 CIRCULAR 0.4 0 0 0 1    
GQ168 CIRCULAR 0.4 0 0 0 1    
GQ169 CIRCULAR 0.4 0 0 0 1    
GQ170 CIRCULAR 0.4 0 0 0 1    
GQ171 CIRCULAR 0.4 0 0 0 1    
GQ172 CIRCULAR 0.4 0 0 0 1    
GQ173 CIRCULAR 0.4 0 0 0 1    
GQ174 CIRCULAR 0.4 0 0 0 1    
GQ175 CIRCULAR 0.4 0 0 0 1    
GQ176 CIRCULAR 0.6 0 0 0 1    
GQ177 CIRCULAR 0.6 0 0 0 1    
GQ178 CIRCULAR 0.6 0 0 0 1    
GQ179 CIRCULAR 0.6 0 0 0 1    
GQ180 CIRCULAR 0.4 0 0 0 1    
GQ181 CIRCULAR 0.4 0 0 0 1    
GQ182 CIRCULAR 0.4 0 0 0 1    
GQ183 CIRCULAR 0.4 0 0 0 1    
GQ184 CIRCULAR 0.4 0 0 0 1    
GQ185 CIRCULAR 0.4 0 0 0 1    
GQ186 CIRCULAR 0.4 0 0 0 1    
GQ187 CIRCULAR 0.4 0 0 0 1    
GQ188 CIRCULAR 0.4 0 0 0 1    
GQ189 CIRCULAR 0.4 0 0 0 1    
GQ190 CIRCULAR 0.4 0 0 0 1    
GQ191 CIRCULAR 0.4 0 0 0 1    
GQ192 CIRCULAR 0.4 0 0 0 1    
GQ193 CIRCULAR 0.4 0 0 0 1    
GQ194 CIRCULAR 0.4 0 0 0 1    
GQ195 CIRCULAR 0.4 0 0 0 1    
GQ196 CIRCULAR 0.4 0 0 0 1    
[POLLUTANTS]          
;;Name Units Crain Cgw Crdii Kdecay SnowOnly Co-Pollutant Co-Frac Cdwf Cinit
;;-------------- ------ ---------- ---------- ---------- ---------- ---------- ---------------- ---------- ---------- ----------
BOD MG/L 0.0 0.0 0.0 0.0 NO * 0.0 20 0
[INFLOWS]          
;;Node Constituent Time Series Type Mfactor Sfactor Baseline Pattern  
;;-------------- ---------------- ---------------- -------- -------- -------- -------- --------   
53 FLOW F2 FLOW 1.0 1.0     
65 FLOW F3 FLOW 1.0 1.0     
4 FLOW F2 FLOW 1.0 1.0     
64 FLOW F1 FLOW 1.0 1.0     
62 FLOW F3 FLOW 1.0 1.0     
58 FLOW F2 FLOW 1.0 1.0     
55 FLOW F2 FLOW 1.0 1.0     
54 FLOW F1 FLOW 1.0 1.0     
6 FLOW F2 FLOW 1.0 1.0     
9 FLOW F1 FLOW 1.0 1.0     
8 FLOW F1 FLOW 1.0 1.0     
28 FLOW F0 FLOW 1.0 1.0     
58 BOD B MASS 1.0 1.0     
15 FLOW F1 FLOW 1.0 1.0     
48 FLOW F2 FLOW 1.0 1.0     
49 FLOW F1 FLOW 1.0 1.0     
12 FLOW F3 FLOW 1.0 1.0     
52 FLOW F4 FLOW 1.0 1.0     
13 FLOW F1 FLOW 1.0 1.0     
18 FLOW F1 FLOW 1.0 1.0     
17 FLOW F2 FLOW 1.0 1.0     
37 FLOW F2 FLOW 1.0 1.0     
45 FLOW F1 FLOW 1.0 1.0     
20 FLOW F3 FLOW 1.0 1.0     
39 FLOW F1 FLOW 1.0 1.0     
41 FLOW F2 FLOW 1.0 1.0     
43 FLOW F3 FLOW 1.0 1.0     
36 FLOW F1 FLOW 1.0 1.0     
35 FLOW F3 FLOW 1.0 1.0     
22 FLOW F1 FLOW 1.0 1.0     
24 FLOW F1 FLOW 1.0 1.0     
29 FLOW F1 FLOW 1.0 1.0     
31 FLOW F2 FLOW 1.0 1.0     
32 FLOW F1 FLOW 1.0 1.0     
[DWF]          
;;Node Constituent Baseline Patterns       
;;-------------- ---------------- ---------- ----------       
53 BOD 20        
65 BOD 20        
4 BOD 20        
64 BOD 20        
62 BOD 20        
58 BOD 20        
55 BOD 20        
54 BOD 20        
6 BOD 20        
9 BOD 20        
8 BOD 20        
28 BOD 20 "" ""      
15 BOD 20        
48 BOD 20        
49 BOD 20        
12 BOD 20        
52 BOD 20        
13 BOD 20        
18 BOD 20        
17 BOD 20        
37 BOD 20        
45 BOD 20        
20 BOD 20        
39 BOD 20        
41 BOD 20        
43 BOD 20        
36 BOD 20        
35 BOD 20        
22 BOD 20        
24 BOD 20        
29 BOD 20        
31 BOD 20        
32 BOD 20        
[TIMESERIES]          
;;Name Date Time Value       
;;-------------- ---------- ---------- ----------       
F0 0:00 10        
F0 0:01 10        
F0 0:02 10        
F0 0:03 10        
F0 0:04 10        
F0 0:05 10        
F0 0:06 10        
F0 0:07 10        
F0 0:08 10        
F0 0:09 10        
F0 0:10 10        
F0 0:11 10        
F0 0:12 10        
F0 0:13 10        
F0 0:14 10        
F0 0:15 10        
F0 0:16 10        
F0 0:17 10        
F0 0:18 10        
F0 0:19 10        
F0 0:20 10        
F0 0:21 10        
F0 0:22 10        
F0 0:23 10        
F0 0:24 10        
F0 0:25 10        
F0 0:26 10        
F0 0:27 10        
F0 0:28 10        
F0 0:29 10        
F0 0:30 10        
F0 0:31 10        
F0 0:32 10        
F0 0:33 10        
F0 0:34 10        
F0 0:35 10        
F0 0:36 10        
F0 0:37 10        
F0 0:38 10        
F0 0:39 10        
F0 0:40 10        
F0 0:41 10        
F0 0:42 10        
F0 0:43 10        
F0 0:44 10        
F0 0:45 10        
F0 0:46 10        
F0 0:47 10        
F0 0:48 10        
F0 0:49 10        
F0 0:50 10        
F0 0:51 10        
F0 0:52 10        
F0 0:53 10        
F0 0:54 10        
F0 0:55 10        
F0 0:56 10        
F0 0:57 10        
F0 0:58 10        
F0 0:59 10        
F0 1:00 10        
F0 1:01 10        
F0 1:02 10        
F0 1:03 10        
F0 1:04 10        
F0 1:05 10        
F0 1:06 10        
F0 1:07 10        
F0 1:08 10        
F0 1:09 10        
F0 1:10 10        
F0 1:11 10        
F0 1:12 10        
F0 1:13 10        
F0 1:14 10        
F0 1:15 10        
F0 1:16 10        
F0 1:17 10        
F0 1:18 10        
F0 1:19 10        
F0 1:20 10        
F0 1:21 10        
F0 1:22 10        
F0 1:23 10        
F0 1:24 10        
F0 1:25 10        
F0 1:26 10        
F0 1:27 10        
F0 1:28 10        
F0 1:29 10        
F0 1:30 10        
F0 1:31 10        
F0 1:32 10        
F0 1:33 10        
F0 1:34 10        
F0 1:35 10        
F0 1:36 10        
F0 1:37 10        
F0 1:38 10        
F0 1:39 10        
F0 1:40 10        
F0 1:41 10        
F0 1:42 10        
F0 1:43 10        
F0 1:44 10        
F0 1:45 10        
F0 1:46 10        
F0 1:47 10        
F0 1:48 10        
F0 1:49 10        
F0 1:50 10        
F0 1:51 10        
F0 1:52 10        
F0 1:53 10        
F0 1:54 10        
F0 1:55 10        
F0 1:56 10        
F0 1:57 10        
F0 1:58 10        
F0 1:59 10        
F0 2:00 10        
F0 4:00 10        
;          
B 0:00 0        
B 0:01 0        
B 0:02 0        
B 0:03 0        
B 0:04 0        
B 0:05 0        
B 0:06 0        
B 0:07 0        
B 0:08 0        
B 0:09 0        
B 0:10 0        
B 0:11 0        
B 0:12 0        
B 0:13 0        
B 0:14 0        
B 0:15 0        
B 0:16 0        
B 0:17 1323345.4196        
B 0:18 0        
B 0:19 0        
B 0:20 0        
B 0:21 0        
B 0:22 0        
B 0:23 0        
B 0:24 0        
B 0:25 0        
B 0:26 0        
B 0:27 0        
B 0:28 0        
B 0:29 0        
B 0:30 0        
B 0:31 0        
B 0:32 0        
B 0:33 0        
B 0:34 0        
B 0:35 0        
B 0:36 0        
B 0:37 0        
B 0:38 0        
B 0:39 0        
B 0:40 0        
B 0:41 0        
B 0:42 0        
B 0:43 0        
B 0:44 0        
B 0:45 0        
B 0:46 0        
B 0:47 0        
B 0:48 0        
B 0:49 0        
B 0:50 0        
B 0:51 0        
B 0:52 0        
B 0:53 0        
B 0:54 0        
B 0:55 0        
B 0:56 0        
B 0:57 0        
B 0:58 0        
B 0:59 0        
B 1:00 0        
B 1:01 0        
B 1:02 0        
B 1:03 0        
B 1:04 0        
B 1:05 0        
B 1:06 0        
B 1:07 0        
B 1:08 0        
B 1:09 0        
B 1:10 0        
B 1:11 0        
B 1:12 0        
B 1:13 0        
B 1:14 0        
B 1:15 0        
B 1:16 0        
B 1:17 0        
B 1:18 0        
B 1:19 0        
B 1:20 0        
B 1:21 0        
B 1:22 0        
B 1:23 0        
B 1:24 0        
B 1:25 0        
B 1:26 0        
B 1:27 0        
B 1:28 0        
B 1:29 0        
B 1:30 0        
B 1:31 0        
B 1:32 0        
B 1:33 0        
B 1:34 0        
B 1:35 0        
B 1:36 0        
B 1:37 0        
B 1:38 0        
B 1:39 0        
B 1:40 0        
B 1:41 0        
B 1:42 0        
B 1:43 0        
B 1:44 0        
B 1:45 0        
B 1:46 0        
B 1:47 0        
B 1:48 0        
B 1:49 0        
B 1:50 0        
B 1:51 0        
B 1:52 0        
B 1:53 0        
B 1:54 0        
B 1:55 0        
B 1:56 0        
B 1:57 0        
B 1:58 0        
B 1:59 0        
B 2:00 0        
B 2:01 0        
B 2:02 0        
B 2:03 0        
B 2:04 0        
B 2:05 0        
B 2:06 0        
B 2:07 0        
B 2:08 0        
B 2:09 0        
B 2:10 0        
B 2:11 0        
B 2:12 0        
B 2:13 0        
B 2:14 0        
B 2:15 0        
B 2:16 0        
B 2:17 0        
B 2:18 0        
B 2:19 0        
B 2:20 0        
B 2:21 0        
B 2:22 0        
B 2:23 0        
B 2:24 0        
B 2:25 0        
B 2:26 0        
B 2:27 0        
B 2:28 0        
B 2:29 0        
B 2:30 0        
B 2:31 0        
B 2:32 0        
B 2:33 0        
B 2:34 0        
B 2:35 0        
B 2:36 0        
B 2:37 0        
B 2:38 0        
B 2:39 0        
B 2:40 0        
B 2:41 0        
B 2:42 0        
B 2:43 0        
B 2:44 0        
B 2:45 0        
B 2:46 0        
B 2:47 0        
B 2:48 0        
B 2:49 0        
B 2:50 0        
B 2:51 0        
B 2:52 0        
B 2:53 0        
B 2:54 0        
B 2:55 0        
B 2:56 0        
B 2:57 0        
B 2:58 0        
B 2:59 0        
B 3:00 0        
;          
F1 0:00 1        
F1 0:01 1        
F1 0:02 1        
F1 0:03 1        
F1 0:04 1        
F1 0:05 1        
F1 0:06 1        
F1 0:07 1        
F1 0:08 1        
F1 0:09 1        
F1 0:10 1        
F1 0:11 1        
F1 0:12 1        
F1 0:13 1        
F1 0:14 1        
F1 0:15 1        
F1 0:16 1        
F1 0:17 1        
F1 0:18 1        
F1 0:19 1        
F1 0:20 1        
F1 0:21 1        
F1 0:22 1        
F1 0:23 1        
F1 0:24 1        
F1 0:25 1        
F1 0:26 1        
F1 0:27 1        
F1 0:28 1        
F1 0:29 1        
F1 0:30 1        
F1 0:31 1        
F1 0:32 1        
F1 0:33 1        
F1 0:34 1        
F1 0:35 1        
F1 0:36 1        
F1 0:37 1        
F1 0:38 1        
F1 0:39 1        
F1 0:40 1        
F1 0:41 1        
F1 0:42 1        
F1 0:43 1        
F1 0:44 1        
F1 0:45 1        
F1 0:46 1        
F1 0:47 1        
F1 0:48 1        
F1 0:49 1        
F1 0:50 1        
F1 0:51 1        
F1 0:52 1        
F1 0:53 1        
F1 0:54 1        
F1 0:55 1        
F1 0:56 1        
F1 0:57 1        
F1 0:58 1        
F1 0:59 1        
F1 1:00 1        
F1 1:01 1        
F1 1:02 1        
F1 1:03 1        
F1 1:04 1        
F1 1:05 1        
F1 1:06 1        
F1 1:07 1        
F1 1:08 1        
F1 1:09 1        
F1 1:10 1        
F1 1:11 1        
F1 1:12 1        
F1 1:13 1        
F1 1:14 1        
F1 1:15 1        
F1 1:16 1        
F1 1:17 1        
F1 1:18 1        
F1 1:19 1        
F1 1:20 1        
F1 1:21 1        
F1 1:22 1        
F1 1:23 1        
F1 1:24 1        
F1 1:25 1        
F1 1:26 1        
F1 1:27 1        
F1 1:28 1        
F1 1:29 1        
F1 1:30 1        
F1 1:31 1        
F1 1:32 1        
F1 1:33 1        
F1 1:34 1        
F1 1:35 1        
F1 1:36 1        
F1 1:37 1        
F1 1:38 1        
F1 1:39 1        
F1 1:40 1        
F1 1:41 1        
F1 1:42 1        
F1 1:43 1        
F1 1:44 1        
F1 1:45 1        
F1 1:46 1        
F1 1:47 1        
F1 1:48 1        
F1 1:49 1        
F1 1:50 1        
F1 1:51 1        
F1 1:52 1        
F1 1:53 1        
F1 1:54 1        
F1 1:55 1        
F1 1:56 1        
F1 1:57 1        
F1 1:58 1        
F1 1:59 1        
F1 2:00 1        
F1 4:00 1        
;          
F2 0:00 2        
F2 0:01 2        
F2 0:02 2        
F2 0:03 2        
F2 0:04 2        
F2 0:05 2        
F2 0:06 2        
F2 0:07 2        
F2 0:08 2        
F2 0:09 2        
F2 0:10 2        
F2 0:11 2        
F2 0:12 2        
F2 0:13 2        
F2 0:14 2        
F2 0:15 2        
F2 0:16 2        
F2 0:17 2        
F2 0:18 2        
F2 0:19 2        
F2 0:20 2        
F2 0:21 2        
F2 0:22 2        
F2 0:23 2        
F2 0:24 2        
F2 0:25 2        
F2 0:26 2        
F2 0:27 2        
F2 0:28 2        
F2 0:29 2        
F2 0:30 2        
F2 0:31 2        
F2 0:32 2        
F2 0:33 2        
F2 0:34 2        
F2 0:35 2        
F2 0:36 2        
F2 0:37 2        
F2 0:38 2        
F2 0:39 2        
F2 0:40 2        
F2 0:41 2        
F2 0:42 2        
F2 0:43 2        
F2 0:44 2        
F2 0:45 2        
F2 0:46 2        
F2 0:47 2        
F2 0:48 2        
F2 0:49 2        
F2 0:50 2        
F2 0:51 2        
F2 0:52 2        
F2 0:53 2        
F2 0:54 2        
F2 0:55 2        
F2 0:56 2        
F2 0:57 2        
F2 0:58 2        
F2 0:59 2        
F2 1:00 2        
F2 1:01 2        
F2 1:02 2        
F2 1:03 2        
F2 1:04 2        
F2 1:05 2        
F2 1:06 2        
F2 1:07 2        
F2 1:08 2        
F2 1:09 2        
F2 1:10 2        
F2 1:11 2        
F2 1:12 2        
F2 1:13 2        
F2 1:14 2        
F2 1:15 2        
F2 1:16 2        
F2 1:17 2        
F2 1:18 2        
F2 1:19 2        
F2 1:20 2        
F2 1:21 2        
F2 1:22 2        
F2 1:23 2        
F2 1:24 2        
F2 1:25 2        
F2 1:26 2        
F2 1:27 2        
F2 1:28 2        
F2 1:29 2        
F2 1:30 2        
F2 1:31 2        
F2 1:32 2        
F2 1:33 2        
F2 1:34 2        
F2 1:35 2        
F2 1:36 2        
F2 1:37 2        
F2 1:38 2        
F2 1:39 2        
F2 1:40 2        
F2 1:41 2        
F2 1:42 2        
F2 1:43 2        
F2 1:44 2        
F2 1:45 2        
F2 1:46 2        
F2 1:47 2        
F2 1:48 2        
F2 1:49 2        
F2 1:50 2        
F2 1:51 2        
F2 1:52 2        
F2 1:53 2        
F2 1:54 2        
F2 1:55 2        
F2 1:56 2        
F2 1:57 2        
F2 1:58 2        
F2 1:59 2        
F2 2:00 2        
F2 4:00 2        
;          
F3 0:00 3        
F3 0:01 3        
F3 0:02 3        
F3 0:03 3        
F3 0:04 3        
F3 0:05 3        
F3 0:06 3        
F3 0:07 3        
F3 0:08 3        
F3 0:09 3        
F3 0:10 3        
F3 0:11 3        
F3 0:12 3        
F3 0:13 3        
F3 0:14 3        
F3 0:15 3        
F3 0:16 3        
F3 0:17 3        
F3 0:18 3        
F3 0:19 3        
F3 0:20 3        
F3 0:21 3        
F3 0:22 3        
F3 0:23 3        
F3 0:24 3        
F3 0:25 3        
F3 0:26 3        
F3 0:27 3        
F3 0:28 3        
F3 0:29 3        
F3 0:30 3        
F3 0:31 3        
F3 0:32 3        
F3 0:33 3        
F3 0:34 3        
F3 0:35 3        
F3 0:36 3        
F3 0:37 3        
F3 0:38 3        
F3 0:39 3        
F3 0:40 3        
F3 0:41 3        
F3 0:42 3        
F3 0:43 3        
F3 0:44 3        
F3 0:45 3        
F3 0:46 3        
F3 0:47 3        
F3 0:48 3        
F3 0:49 3        
F3 0:50 3        
F3 0:51 3        
F3 0:52 3        
F3 0:53 3        
F3 0:54 3        
F3 0:55 3        
F3 0:56 3        
F3 0:57 3        
F3 0:58 3        
F3 0:59 3        
F3 1:00 3        
F3 1:01 3        
F3 1:02 3        
F3 1:03 3        
F3 1:04 3        
F3 1:05 3        
F3 1:06 3        
F3 1:07 3        
F3 1:08 3        
F3 1:09 3        
F3 1:10 3        
F3 1:11 3        
F3 1:12 3        
F3 1:13 3        
F3 1:14 3        
F3 1:15 3        
F3 1:16 3        
F3 1:17 3        
F3 1:18 3        
F3 1:19 3        
F3 1:20 3        
F3 1:21 3        
F3 1:22 3        
F3 1:23 3        
F3 1:24 3        
F3 1:25 3        
F3 1:26 3        
F3 1:27 3        
F3 1:28 3        
F3 1:29 3        
F3 1:30 3        
F3 1:31 3        
F3 1:32 3        
F3 1:33 3        
F3 1:34 3        
F3 1:35 3        
F3 1:36 3        
F3 1:37 3        
F3 1:38 3        
F3 1:39 3        
F3 1:40 3        
F3 1:41 3        
F3 1:42 3        
F3 1:43 3        
F3 1:44 3        
F3 1:45 3        
F3 1:46 3        
F3 1:47 3        
F3 1:48 3        
F3 1:49 3        
F3 1:50 3        
F3 1:51 3        
F3 1:52 3        
F3 1:53 3        
F3 1:54 3        
F3 1:55 3        
F3 1:56 3        
F3 1:57 3        
F3 1:58 3        
F3 1:59 3        
F3 2:00 3        
F3 4:00 3        
;          
F4 0:00 4        
F4 0:01 4        
F4 0:02 4        
F4 0:03 4        
F4 0:04 4        
F4 0:05 4        
F4 0:06 4        
F4 0:07 4        
F4 0:08 4        
F4 0:09 4        
F4 0:10 4        
F4 0:11 4        
F4 0:12 4        
F4 0:13 4        
F4 0:14 4        
F4 0:15 4        
F4 0:16 4        
F4 0:17 4        
F4 0:18 4        
F4 0:19 4        
F4 0:20 4        
F4 0:21 4        
F4 0:22 4        
F4 0:23 4        
F4 0:24 4        
F4 0:25 4        
F4 0:26 4        
F4 0:27 4        
F4 0:28 4        
F4 0:29 4        
F4 0:30 4        
F4 0:31 4        
F4 0:32 4        
F4 0:33 4        
F4 0:34 4        
F4 0:35 4        
F4 0:36 4        
F4 0:37 4        
F4 0:38 4        
F4 0:39 4        
F4 0:40 4        
F4 0:41 4        
F4 0:42 4        
F4 0:43 4        
F4 0:44 4        
F4 0:45 4        
F4 0:46 4        
F4 0:47 4        
F4 0:48 4        
F4 0:49 4        
F4 0:50 4        
F4 0:51 4        
F4 0:52 4        
F4 0:53 4        
F4 0:54 4        
F4 0:55 4        
F4 0:56 4        
F4 0:57 4        
F4 0:58 4        
F4 0:59 4        
F4 1:00 4        
F4 1:01 4        
F4 1:02 4        
F4 1:03 4        
F4 1:04 4        
F4 1:05 4        
F4 1:06 4        
F4 1:07 4        
F4 1:08 4        
F4 1:09 4        
F4 1:10 4        
F4 1:11 4        
F4 1:12 4        
F4 1:13 4        
F4 1:14 4        
F4 1:15 4        
F4 1:16 4        
F4 1:17 4        
F4 1:18 4        
F4 1:19 4        
F4 1:20 4        
F4 1:21 4        
F4 1:22 4        
F4 1:23 4        
F4 1:24 4        
F4 1:25 4        
F4 1:26 4        
F4 1:27 4        
F4 1:28 4        
F4 1:29 4        
F4 1:30 4        
F4 1:31 4        
F4 1:32 4        
F4 1:33 4        
F4 1:34 4        
F4 1:35 4        
F4 1:36 4        
F4 1:37 4        
F4 1:38 4        
F4 1:39 4        
F4 1:40 4        
F4 1:41 4        
F4 1:42 4        
F4 1:43 4        
F4 1:44 4        
F4 1:45 4        
F4 1:46 4        
F4 1:47 4        
F4 1:48 4        
F4 1:49 4        
F4 1:50 4        
F4 1:51 4        
F4 1:52 4        
F4 1:53 4        
F4 1:54 4        
F4 1:55 4        
F4 1:56 4        
F4 1:57 4        
F4 1:58 4        
F4 1:59 4        
F4 2:00 4        
F4 4:00 4        
;          
F5 0:00 5        
F5 0:01 5        
F5 0:02 5        
F5 0:03 5        
F5 0:04 5        
F5 0:05 5        
F5 0:06 5        
F5 0:07 5        
F5 0:08 5        
F5 0:09 5        
F5 0:10 5        
F5 0:11 5        
F5 0:12 5        
F5 0:13 5        
F5 0:14 5        
F5 0:15 5        
F5 0:16 5        
F5 0:17 5        
F5 0:18 5        
F5 0:19 5        
F5 0:20 5        
F5 0:21 5        
F5 0:22 5        
F5 0:23 5        
F5 0:24 5        
F5 0:25 5        
F5 0:26 5        
F5 0:27 5        
F5 0:28 5        
F5 0:29 5        
F5 0:30 5        
F5 0:31 5        
F5 0:32 5        
F5 0:33 5        
F5 0:34 5        
F5 0:35 5        
F5 0:36 5        
F5 0:37 5        
F5 0:38 5        
F5 0:39 5        
F5 0:40 5        
F5 0:41 5        
F5 0:42 5        
F5 0:43 5        
F5 0:44 5        
F5 0:45 5        
F5 0:46 5        
F5 0:47 5        
F5 0:48 5        
F5 0:49 5        
F5 0:50 5        
F5 0:51 5        
F5 0:52 5        
F5 0:53 5        
F5 0:54 5        
F5 0:55 5        
F5 0:56 5        
F5 0:57 5        
F5 0:58 5        
F5 0:59 5        
F5 1:00 5        
F5 1:01 5        
F5 1:02 5        
F5 1:03 5        
F5 1:04 5        
F5 1:05 5        
F5 1:06 5        
F5 1:07 5        
F5 1:08 5        
F5 1:09 5        
F5 1:10 5        
F5 1:11 5        
F5 1:12 5        
F5 1:13 5        
F5 1:14 5        
F5 1:15 5        
F5 1:16 5        
F5 1:17 5        
F5 1:18 5        
F5 1:19 5        
F5 1:20 5        
F5 1:21 5        
F5 1:22 5        
F5 1:23 5        
F5 1:24 5        
F5 1:25 5        
F5 1:26 5        
F5 1:27 5        
F5 1:28 5        
F5 1:29 5        
F5 1:30 5        
F5 1:31 5        
F5 1:32 5        
F5 1:33 5        
F5 1:34 5        
F5 1:35 5        
F5 1:36 5        
F5 1:37 5        
F5 1:38 5        
F5 1:39 5        
F5 1:40 5        
F5 1:41 5        
F5 1:42 5        
F5 1:43 5        
F5 1:44 5        
F5 1:45 5        
F5 1:46 5        
F5 1:47 5        
F5 1:48 5        
F5 1:49 5        
F5 1:50 5        
F5 1:51 5        
F5 1:52 5        
F5 1:53 5        
F5 1:54 5        
F5 1:55 5        
F5 1:56 5        
F5 1:57 5        
F5 1:58 5        
F5 1:59 5        
F5 2:00 5        
F5 4:00 5        
[REPORT]          
;;Reporting Options         
INPUT NO         
CONTROLS NO         
SUBCATCHMENTS ALL         
NODES ALL         
LINKS ALL         
[TAGS]          
[MAP]          
DIMENSIONS 0.000 0.000 10000.000 10000.000      
Units None         
[COORDINATES]          
;;Node X-Coord Y-Coord        
;;-------------- ------------------ ------------------        
1 5538.600 2782.765        
3 3833.034 3123.878        
2 2648.115 3339.318        
60 1570.916 3698.384        
59 206.463 4488.330        
57 -745.063 5278.276        
56 -1732.496 5816.876        
53 -2737.882 6104.129        
65 4084.381 3895.871        
63 2217.235 2387.792        
61 1822.262 1903.052        
4 1086.176 1382.406        
64 1175.943 2710.952        
62 2773.788 1238.779        
58 978.456 5368.043        
55 -1283.662 4542.190        
54 -1283.662 6606.822        
5 2217.235 4919.210        
6 3043.088 6014.363        
